1h00
  PyMOL2.6          3D                             0

  9  1  0  0  0  0  0  0  0  0999 V2000
    0.7130   30.5170    8.5790 C   0  0  0  0  0  0  0  0  0  0  0  0
    1.3960   32.4840    7.3450 N   0  0  0  0  0  0  0  0  0  0  0  0
   -2.8640   27.9370   12.0910 C   0  0  0  0  0  0  0  0  0  0  0  0
   -0.4620   28.0280   12.5840 C   0  0  0  0  0  0  0  0  0  0  0  0
    2.7940   30.5570    7.1260 N   0  0  0  0  0  0  0  0  0  0  0  0
    3.6480   28.5750    8.4680 C   0  0  0  0  0  0  0  0  0  0  0  0
    4.2480   27.2990    8.5010 C   0  0  0  0  0  0  0  0  0  0  0  0
    3.7950   28.5970    6.0100 C   0  0  0  0  0  0  0  0  0  0  0  0
    5.6170   20.3410    7.7610 N   0  0  0  0  0  0  0  0  0  0  0  0
  6  7  4  0  0  0  0
M  END
$$$$
